tests/data/power_flow/step-up-transformer-single/fast-any-tap/sym_output.json
{
  "version": "1.0",
  "type": "sym_output",
  "is_batch": false,
  "attributes": {},
  "data": {
    "node": [
      {"id": 2, "energized": 1, "u_pu": 0.9999994897958192, "u": 9999.994897958191, "u_angle": -4.976276188195561e-08, "p": 30201.65062487359, "q": 11004.60371157344},
      {"id": 4, "energized": 1, "u_pu": 0.9966854346351138, "u": 398.6741738540455, "u_angle": -2.618511710996588, "p": -30000.00000000017, "q": -10000.00000000001}
    ],
    "transformer": [
      {"id": 3, "energized": 1, "loading": 0.3214406637803785, "p_from": 30201.65062487359, "q_from": 11004.60371157344, "i_from": 1.855841127489525, "s_from": 32144.06637803785, "p_to": -30000.00000000017, "q_to": -10000.00000000001, "i_to": 45.7953381003046, "s_to": 31622.77660168396}
    ],
    "sym_load": [
      {"id": 5, "energized": 1, "p": 30000, "q": 10000, "i": 45.79533810030436, "s": 31622.77660168379, "pf": 0.9486832980505139}
    ],
    "source": [
      {"id": 1, "energized": 1, "p": 30201.65062487359, "q": 11004.60371157344, "i": 1.855841127489525, "s": 32144.06637803785, "pf": 0.9395715610364904}
    ],
    "transformer_tap_regulator": [
      {"id": 6, "energized": 1, "tap_pos": -1}
    ]
  }
}